*HEADING
 TEST OF NONLINEAR USER ELEMENTS
**
*Node
      1,       -1800.,         333.
      2,       -1800.,          33.
      3,       -1750.,          33.
      4,       -1750.,         333.
      5,       -1800.,           0.
      6,       -1750.,           0.
      7,       -1700.,          33.
      8,       -1700.,         333.
      9,       -1700.,           0.
     10,        -633.,          33.
     11,        -633.,         333.
     12,       -2000.,          33.
     13,       -2000.,           0.
     14,        -583.,          33.
     15,        -583.,         333.
     16,        -633.,           0.
     17,        -583.,           0.
     18,        -533.,          33.
     19,        -533.,         333.
     20,        -533.,           0.
** ... 5421 like lines cut
**
** Defining user element U1
*User element,nodes=8,type=U1,properties=11,coordinates=2,VARIABLES=1080,Unsymm
 1, 2, 11
**
*ELEMENT, TYPE=U1, ELSET=ALLELEMENT
  1,    1,   25,  430,   56, 1855, 1856, 1857, 1858
  2,   25,   26,  431,  430, 1859, 1860, 1861, 1856
  3,   26,   27,  432,  431, 1862, 1863, 1864, 1860
  4,   27,   28,  433,  432, 1865, 1866, 1867, 1863
  5,   28,   29,  434,  433, 1868, 1869, 1870, 1866
  6,   29,   30,  435,  434, 1871, 1872, 1873, 1869
  7,   30,   31,  436,  435, 1874, 1875, 1876, 1872
  8,   31,   32,  437,  436, 1877, 1878, 1879, 1875
  9,   32,   33,  438,  437, 1880, 1881, 1882, 1878
 10,   33,   34,  439,  438, 1883, 1884, 1885, 1881
 11,   34,   35,  440,  439, 1886, 1887, 1888, 1884
 12,   35,   36,  441,  440, 1889, 1890, 1891, 1887
 13,   36,   37,  442,  441, 1892, 1893, 1894, 1890
 14,   37,   38,  443,  442, 1895, 1896, 1897, 1893
 15,   38,    2,   39,  443, 1898, 1899, 1900, 1896
 16,   56,  430,  444,   55, 1857, 1901, 1902, 1903
 17,  430,  431,  445,  444, 1861, 1904, 1905, 1901
 18,  431,  432,  446,  445, 1864, 1906, 1907, 1904
 19,  432,  433,  447,  446, 1867, 1908, 1909, 1906
 20,  433,  434,  448,  447, 1870, 1910, 1911, 1908
** ... 1704 like lines cut
**
*Uel property, elset=ALLELEMENT
 25000, 0.2, 10, 0.000112, 20
**
** Importing connectivity for UMAT element
*Element, TYPE=U1, elset=ALLELEMENT1
1019, 1286,  260,   20,  261, 3982, 3985, 3986, 3983
1470, 1672,  349,  350, 1673, 4911, 4914, 4915, 4912
1504, 1689,  366,  367, 1690, 4979, 4982, 4983, 4980
1510, 1692,  369,  370, 1693, 4991, 4994, 4995, 4992
1524, 1699,  376,  377, 1700, 5019, 5022, 5023, 5020
1530, 1702,  379,   16,  237, 5031, 5033, 3871, 5032
1546, 1709,  386,  387, 1710, 5061, 5064, 5065, 5062
1548, 1710,  387,  388, 1711, 5065, 5068, 5069, 5066
1572, 1722,  399,  400, 1723, 5113, 5116, 5117, 5114
1578, 1725,  402,  403, 1726, 5125, 5128, 5129, 5126
*Uel property, elset=ALLELEMENT1
 20000, 0.2, 10, 0.000112, 20
**
** Importing connectivity for UMAT element
*Element, TYPE=CPS8, elset=umatelemX
10001,    1,   25,  430,   56, 1855, 1856, 1857, 1858
10002,   25,   26,  431,  430, 1859, 1860, 1861, 1856
10003,   26,   27,  432,  431, 1862, 1863, 1864, 1860
10004,   27,   28,  433,  432, 1865, 1866, 1867, 1863
10005,   28,   29,  434,  433, 1868, 1869, 1870, 1866
10006,   29,   30,  435,  434, 1871, 1872, 1873, 1869
10007,   30,   31,  436,  435, 1874, 1875, 1876, 1872
10008,   31,   32,  437,  436, 1877, 1878, 1879, 1875
10009,   32,   33,  438,  437, 1880, 1881, 1882, 1878
10010,   33,   34,  439,  438, 1883, 1884, 1885, 1881
10011,   34,   35,  440,  439, 1886, 1887, 1888, 1884
10012,   35,   36,  441,  440, 1889, 1890, 1891, 1887
10013,   36,   37,  442,  441, 1892, 1893, 1894, 1890
10014,   37,   38,  443,  442, 1895, 1896, 1897, 1893
10015,   38,    2,   39,  443, 1898, 1899, 1900, 1896
10016,   56,  430,  444,   55, 1857, 1901, 1902, 1903
10017,  430,  431,  445,  444, 1861, 1904, 1905, 1901
10018,  431,  432,  446,  445, 1864, 1906, 1907, 1904
10019,  432,  433,  447,  446, 1867, 1908, 1909, 1906
10020,  433,  434,  448,  447, 1870, 1910, 1911, 1908
** ... 1714 like lines cut
*Solid Section, elset=umatelemX, material=umatelemX1
 1.0
*Material, name=umatelemX1
*Depvar
 120,
*User Material, constants=2
 1.0e-11,0.2
**
** Importing connectivity for UMAT element
*Element, TYPE=T2D2, elset=umatelemS
20001	,	12	,	207
20002	,	207	,	205
20003	,	205	,	3748
20004	,	3748	,	3738
20005	,	3738	,	3728
20006	,	3728	,	39
20007	,	39	,	3
20008	,	3	,	62
20009	,	62	,	2111
20010	,	2111	,	2173
20011	,	2173	,	2235
20012	,	2235	,	87
20013	,	87	,	89
20014	,	89	,	91
20015	,	91	,	2452
20016	,	2452	,	2514
20017	,	2514	,	2576
20018	,	2576	,	98
20019	,	98	,	100
20020	,	100	,	102
** ... 35 like lines cut
*SolidSection, elset=umatelemS, material=umatelemS
 1.6
*Material, name=umatelemS
*Elastic
210000., 0.3
*Plastic
300.,0.
** ----------------------------------------------------------------
**   
** Sets for Application of BC
*Nset, nset=symm1
   21,   22,   23,  288,  289,  290,  291,  292,  293,  294,  295,  296,  297,  298,  299,  300
  301,  406, 4794, 4797, 4799, 4801, 4803, 4805, 4807, 4809, 4811, 4813, 4815, 4817, 4819, 4821
 4823, 5139, 5141
*Nset, nset=load1
 15,
*Nset, nset=bot1
 6,
** 
*Nset, nset=load1Z
 11, 15, 19, 235, 236, 257, 258, 3777, 3808, 3839, 3884, 3915, 3946
*Nset, nset=bot1Z
 5, 6, 9, 58, 59, 79, 80, 1967, 1971, 1975, 2072, 2076, 2080
**
** Constraint: Constraint-1
*MPC
BEAM, bot1Z, bot1
** Constraint: Constraint-2
*MPC
BEAM, load1Z, load1
** ----------------------------------------------------------------
** 
** STEP: Step-1
** 
*Step, name=Step-1, nlgeom=NO, inc=100000
*Static
0.001, 14., 1e-07, 1.
** 
** CONTROLS
** 
*Controls, reset
*Controls, parameters=field, field=displacement
50., 0.1, , , 0.2, , , 
*Controls, parameters=field, field=hydrostatic fluid pressure
50., 0.1, , , 0.2, , , 
*Controls, parameters=field, field=rotation
50., 1., , , 0.2, , , 
*Controls, parameters=field, field=electrical potential
50., 0.1, , , 0.2, , , 
** 
*Boundary
 symm1, 1, 1, 0
**
*Boundary
 bot1, 2, 2, 0
**
** OUTPUT REQUESTS
** 
*Restart, write, frequency=0
** 
** FIELD OUTPUT: F-Output-1
** 
*Output, field
*Node Output
RF, U
** 
** FIELD OUTPUT: F-Output-2
** 
*Element Output, directions=YES
S, SDV
*End Step
** ----------------------------------------------------------------
** 
** STEP: Step-2
** 
*Step, name=Step-2, nlgeom=NO, inc=100000
*Static, stabilize=0.2, allsdtol=0.05, continue=NO
0.001, 20, 1e-07, 0.05
** 
** CONTROLS
** 
*Controls, reset
*Controls, parameters=field, field=displacement
100., 0.1, , , 0.2, , , 
*Controls, parameters=field, field=hydrostatic fluid pressure
100., 0.1, , , 0.2, , , 
*Controls, parameters=field, field=rotation
100., 1., , , 0.2, , , 
*Controls, parameters=field, field=electrical potential
100., 0.1, , , 0.2, , , 
** 
*Boundary
 symm1, 1, 1, 0
**
*Boundary
 bot1, 2, 2, 0
**
*Boundary
 load1, 2, 2, -3
** 
** OUTPUT REQUESTS
** 
*Restart, write, frequency=0
** 
** FIELD OUTPUT: F-Output-1
** 
*Output, field
*Node Output
RF, U
** 
** FIELD OUTPUT: F-Output-2
** 
*Element Output, directions=YES
S, SDV
*End Step
